LAMMPS (28 Mar 2023 - Update 1)
#模型基本设置
units 		metal
boundary 	p p p
atom_style 	atomic
timestep 0.005
neighbor 0.6 bin
neigh_modify every 5 delay 0 check yes
#为计算Cu（111）面表面能，对晶体取向进行重定义
lattice 	fcc 3.61 orient x 1 1 -2 orient y -1 1 0 orient z 1 1 1
Lattice spacing in x,y,z = 5.8951053 5.105311 6.2527034
region		box block 0 5 0 5 0 40
#生成box和Cu原子
create_box 	1 box
Created orthogonal box = (0 0 0) to (29.475527 25.526555 250.10814)
create_atoms 1 box
Created 16000 atoms
#势函数设置，采用eam势
pair_style eam/fs
pair_coeff * * Cu_zhou.eam.alloy Cu
Reading eam/fs potential file Cu_zhou.eam.alloy with DATE: 2007-10-12
#定义上下两个边界区域
region boundary1 block INF INF INF INF 29.9 INF
region boundary2 block INF INF INF INF INF 9.9
group boundary1 region boundary1
4000 atoms in group boundary1
group boundary2 region boundary2
4000 atoms in group boundary2
group boundary union boundary1 boundary2
8000 atoms in group boundary
#删除边界原子，相当于在Cu的上下两端形成一个真空层，消除上下端面之间的作用力
delete_atoms group boundary
Deleted 8000 atoms, new total = 8000
#计算势能和动能
compute 3 all pe/atom
compute 4 all ke/atom
#输出设置
thermo 50
dump 1 all custom 100 dump.atom id xs ys zs c_3 c_4
#能量最小化
min_style sd
minimize 1.0e-30 1.0e-15 10000 10000
Step          Temp          E_pair         E_mol          TotEng         Press
0   0             -25735.295      0             -25735.295      38326.982
Averages over the last 51 of 102 rows, steps 2550 to 5017:
Temp E_pair E_mol TotEng Press
0 -28175.1 0 -28175.1 1553.43
Loop time of 391.659 on 1 procs for 5017 steps with 8000 atoms

Minimization stats:
  Stopping criterion = max force evaluations
  Energy initial, next-to-last, final =
  Force two-norm initial, final = 424.82751 0.034078692
  Force max component initial, final = 21.225453 0.0005267557
  Final line search alpha, max atom move = 1 0.0005267557
  Iterations, force evaluations = 5017 10001

#系统达到平衡后，输出势能E，即E0
variable E equal pe
print "---------------------- E0=$E---------------------------"
run 0
Step          Temp          E_pair         E_mol          TotEng         Press
5017   0             -28176.239      0             -28176.239      1651.0724
Loop time of 1.482e-06 on 1 procs for 0 steps with 8000 atoms

#定义上下区域，目的是把晶体切为上下两部分
region down block INF INF INF INF INF 19.94
region up block INF INF INF INF 19.95 INF
group up region up
3950 atoms in group up
group down region down
4050 atoms in group down
#此处与源文件不同，将box在z方向上的尺寸改为80，扩大1倍
change_box all z final 0 80 units lattice
Changing box ...
  orthogonal box = (0 0 0) to (29.475527 25.526555 500.21627)
#将上部分原子沿z轴移动40个晶格
displace_atoms up move 0 0 40 units lattice
Displacing atoms ...
#第二次进行能量最小化，并输出新的势能E1
minimize 1.0e-30 1.0e-20 10000 100000
Step          Temp          E_pair         E_mol          TotEng         Press
5017   0             -28034.83       0             -28034.83       587.47014
Averages over the last 63 of 126 rows, steps 8150 to 11224:
Temp E_pair E_mol TotEng Press
0 -28035.6 0 -28035.6 637.465
Loop time of 447.708 on 1 procs for 6207 steps with 8000 atoms

Minimization stats:
  Stopping criterion = energy tolerance
  Energy initial, next-to-last, final =
  Force two-norm initial, final = 1.5592599 3.4032061e-05
  Force max component initial, final = 0.25756188 7.8313148e-07
  Final line search alpha, max atom move = 1 7.8313148e-07
  Iterations, force evaluations = 6207 12414
